SmartGridMain/IEEE33/lineData33Full.dss
! Line definitions
New line.1-2   Bus1=1  Bus2=2  R1=0.0922 X1=0.0470
New line.2-3   Bus1=2  Bus2=3  R1=0.493  X1=0.2511
New line.3-4   Bus1=3  Bus2=4  R1=0.366  X1=0.1864
New line.4-5   Bus1=4  Bus2=5  R1=0.3811 X1=0.1941
New line.5-6   Bus1=5  Bus2=6  R1=0.819  X1=0.707
New line.6-7   Bus1=6  Bus2=7  R1=0.1872 X1=0.6188
New line.7-8   Bus1=7  Bus2=8  R1=0.7114 X1=0.2351
New line.8-9   Bus1=8  Bus2=9  R1=1.03   X1=0.74
New line.9-10  Bus1=9  Bus2=10 R1=1.044  X1=0.74
New line.10-11 Bus1=10 Bus2=11 R1=0.1966 X1=0.065
New line.11-12 Bus1=11 Bus2=12 R1=0.3744 X1=0.1238
New line.12-13 Bus1=12 Bus2=13 R1=1.468  X1=1.155
New line.13-14 Bus1=13 Bus2=14 R1=0.5416 X1=0.7129
New line.14-15 Bus1=14 Bus2=15 R1=0.591  X1=0.526
New line.15-16 Bus1=15 Bus2=16 R1=0.7463 X1=0.545
New line.16-17 Bus1=16 Bus2=17 R1=1.289  X1=1.721
New line.17-18 Bus1=17 Bus2=18 R1=0.732  X1=0.574
New line.2-19  Bus1=2  Bus2=19 R1=0.164  X1=0.1565
New line.19-20 Bus1=19 Bus2=20 R1=1.5042 X1=1.3554
New line.20-21 Bus1=20 Bus2=21 R1=0.4095 X1=0.4784
New line.21-22 Bus1=21 Bus2=22 R1=0.7089 X1=0.9373
New line.3-23  Bus1=3  Bus2=23 R1=0.4512 X1=0.3083
New line.23-24 Bus1=23 Bus2=24 R1=0.898  X1=0.7091
New line.24-25 Bus1=24 Bus2=25 R1=0.896  X1=0.7011
New line.6-26  Bus1=6  Bus2=26 R1=0.203  X1=0.1034
New line.26-27 Bus1=26 Bus2=27 R1=0.2842 X1=0.1447
New line.27-28 Bus1=27 Bus2=28 R1=1.059  X1=0.9337
New line.28-29 Bus1=28 Bus2=29 R1=0.8042 X1=0.7006
New line.29-30 Bus1=29 Bus2=30 R1=0.5075 X1=0.2585
New line.30-31 Bus1=30 Bus2=31 R1=0.9744 X1=0.963
New line.31-32 Bus1=31 Bus2=32 R1=0.3105 X1=0.3619
New line.32-33 Bus1=32 Bus2=33 R1=0.341  X1=0.5302
New line.2001-2002 Bus1=2001 Bus2=2002 R1=0.00975 X1=0.00155
New line.2002-2003 Bus1=2002 Bus2=2003 R1=0.00679 X1=0.00052
New line.2002-2004 Bus1=2002 Bus2=2004 R1=0.00563 X1=0.00090
New line.2003-2056 Bus1=2003 Bus2=2056 R1=0.00615 X1=0.00047
New line.2003-2058 Bus1=2003 Bus2=2058 R1=0.00776 X1=0.00059
New line.2004-2005 Bus1=2004 Bus2=2005 R1=0.00659 X1=0.00050
New line.2004-2006 Bus1=2004 Bus2=2006 R1=0.00944 X1=0.00150
New line.2005-2057 Bus1=2005 Bus2=2057 R1=0.00708 X1=0.00054
New line.2005-2061 Bus1=2005 Bus2=2061 R1=0.00741 X1=0.00057
New line.2006-2007 Bus1=2006 Bus2=2007 R1=0.00950 X1=0.00073
New line.2006-2008 Bus1=2006 Bus2=2008 R1=0.00597 X1=0.00095
New line.2007-2059 Bus1=2007 Bus2=2059 R1=0.00464 X1=0.00036
New line.2007-2060 Bus1=2007 Bus2=2060 R1=0.00464 X1=0.00036
New line.2008-2009 Bus1=2008 Bus2=2009 R1=0.00392 X1=0.00062
New line.2008-2012 Bus1=2008 Bus2=2012 R1=0.00131 X1=0.00099
New line.2009-2010 Bus1=2009 Bus2=2010 R1=0.00037 X1=0.00028
New line.2009-2017 Bus1=2009 Bus2=2017 R1=0.00772 X1=0.00206
New line.2010-2011 Bus1=2010 Bus2=2011 R1=0.00143 X1=0.00109
New line.2010-2069 Bus1=2010 Bus2=2069 R1=0.01650 X1=0.00126
New line.2011-2018 Bus1=2011 Bus2=2018 R1=0.01286 X1=0.00098
New line.2011-2021 Bus1=2011 Bus2=2021 R1=0.01342 X1=0.00202
New line.2012-2013 Bus1=2012 Bus2=2013 R1=0.00109 X1=0.00083
New line.2012-2062 Bus1=2012 Bus2=2062 R1=0.02132 X1=0.00163
New line.2013-2014 Bus1=2013 Bus2=2014 R1=0.01432 X1=0.00110
New line.2013-2015 Bus1=2013 Bus2=2015 R1=0.00126 X1=0.00095
New line.2014-2063 Bus1=2014 Bus2=2063 R1=0.00795 X1=0.00061
New line.2014-2067 Bus1=2014 Bus2=2067 R1=0.00947 X1=0.00072
New line.2015-2016 Bus1=2015 Bus2=2016 R1=0.01632 X1=0.00170
New line.2015-2064 Bus1=2015 Bus2=2064 R1=0.02123 X1=0.00162
New line.2016-2065 Bus1=2016 Bus2=2065 R1=0.00610 X1=0.00047
New line.2016-2066 Bus1=2016 Bus2=2066 R1=0.00610 X1=0.00047
New line.2017-2019 Bus1=2017 Bus2=2019 R1=0.00112 X1=0.00030
New line.2017-2076 Bus1=2017 Bus2=2076 R1=0.01670 X1=0.00128
New line.2018-2068 Bus1=2018 Bus2=2068 R1=0.00792 X1=0.00061
New line.2018-2070 Bus1=2018 Bus2=2070 R1=0.00552 X1=0.00042
New line.2019-2020 Bus1=2019 Bus2=2020 R1=0.00137 X1=0.00036
New line.2019-2074 Bus1=2019 Bus2=2074 R1=0.01721 X1=0.00132
New line.2020-2022 Bus1=2020 Bus2=2022 R1=0.00386 X1=0.00062
New line.2020-2026 Bus1=2020 Bus2=2026 R1=0.00200 X1=0.00053
New line.2021-2071 Bus1=2021 Bus2=2071 R1=0.00818 X1=0.00063
New line.2021-2072 Bus1=2021 Bus2=2072 R1=0.00382 X1=0.00029
New line.2022-2023 Bus1=2022 Bus2=2023 R1=0.00501 X1=0.00080
New line.2022-2025 Bus1=2022 Bus2=2025 R1=0.00885 X1=0.00068
New line.2023-2024 Bus1=2023 Bus2=2024 R1=0.00313 X1=0.00050
New line.2023-2073 Bus1=2023 Bus2=2073 R1=0.01466 X1=0.00112
New line.2024-2028 Bus1=2024 Bus2=2028 R1=0.01766 X1=0.00282
New line.2024-2078 Bus1=2024 Bus2=2078 R1=0.01815 X1=0.00139
New line.2025-2075 Bus1=2025 Bus2=2075 R1=0.00598 X1=0.00046
New line.2025-2077 Bus1=2025 Bus2=2077 R1=0.00980 X1=0.00075
New line.2026-2027 Bus1=2026 Bus2=2027 R1=0.00202 X1=0.00054
New line.2026-2079 Bus1=2026 Bus2=2079 R1=0.02442 X1=0.00187
New line.2027-2031 Bus1=2027 Bus2=2031 R1=0.00721 X1=0.00192
New line.2027-2033 Bus1=2027 Bus2=2033 R1=0.01228 X1=0.00094
New line.2028-2029 Bus1=2028 Bus2=2029 R1=0.00637 X1=0.00102
New line.2028-2089 Bus1=2028 Bus2=2089 R1=0.01901 X1=0.00145
New line.2029-2030 Bus1=2029 Bus2=2030 R1=0.01182 X1=0.00090
New line.2029-2032 Bus1=2029 Bus2=2032 R1=0.00753 X1=0.00120
New line.2030-2080 Bus1=2030 Bus2=2080 R1=0.00768 X1=0.00059
New line.2030-2085 Bus1=2030 Bus2=2085 R1=0.00638 X1=0.00049
New line.2031-2036 Bus1=2031 Bus2=2036 R1=0.00080 X1=0.00021
New line.2031-2081 Bus1=2031 Bus2=2081 R1=0.01204 X1=0.00092
New line.2032-2034 Bus1=2032 Bus2=2034 R1=0.01226 X1=0.00094
New line.2032-2035 Bus1=2032 Bus2=2035 R1=0.00607 X1=0.00097
New line.2033-2082 Bus1=2033 Bus2=2082 R1=0.00642 X1=0.00049
New line.2033-2083 Bus1=2033 Bus2=2083 R1=0.01127 X1=0.00086
New line.2034-2084 Bus1=2034 Bus2=2084 R1=0.00765 X1=0.00059
New line.2034-2086 Bus1=2034 Bus2=2086 R1=0.00733 X1=0.00056
New line.2035-2037 Bus1=2035 Bus2=2037 R1=0.00342 X1=0.00055
New line.2035-2040 Bus1=2035 Bus2=2040 R1=0.01577 X1=0.00121
New line.2036-2038 Bus1=2036 Bus2=2038 R1=0.00131 X1=0.00035
New line.2036-2099 Bus1=2036 Bus2=2099 R1=0.01807 X1=0.00138
New line.2037-2088 Bus1=2037 Bus2=2088 R1=0.01687 X1=0.00132
New line.2037-2090 Bus1=2037 Bus2=2090 R1=0.02498 X1=0.00213
New line.2038-2039 Bus1=2038 Bus2=2039 R1=0.00249 X1=0.00066
New line.2038-2087 Bus1=2038 Bus2=2087 R1=0.01610 X1=0.00123
New line.2039-2041 Bus1=2039 Bus2=2041 R1=0.00074 X1=0.00020
New line.2039-2093 Bus1=2039 Bus2=2093 R1=0.01583 X1=0.00121
New line.2040-2091 Bus1=2040 Bus2=2091 R1=0.00615 X1=0.00047
New line.2040-2092 Bus1=2040 Bus2=2092 R1=0.00693 X1=0.00053
New line.2041-2042 Bus1=2041 Bus2=2042 R1=0.00264 X1=0.00070
New line.2041-2050 Bus1=2041 Bus2=2050 R1=0.01747 X1=0.00134
New line.2042-2043 Bus1=2042 Bus2=2043 R1=0.00937 X1=0.00072
New line.2042-2044 Bus1=2042 Bus2=2044 R1=0.00288 X1=0.00077
New line.2043-2094 Bus1=2043 Bus2=2094 R1=0.00743 X1=0.00057
New line.2043-2097 Bus1=2043 Bus2=2097 R1=0.00846 X1=0.00065
New line.2044-2045 Bus1=2044 Bus2=2045 R1=0.00469 X1=0.00081
New line.2044-2095 Bus1=2044 Bus2=2095 R1=0.01722 X1=0.00132
New line.2045-2046 Bus1=2045 Bus2=2046 R1=0.00715 X1=0.00114
New line.2045-2055 Bus1=2045 Bus2=2055 R1=0.01466 X1=0.00112
New line.2046-2047 Bus1=2046 Bus2=2047 R1=0.01295 X1=0.00099
New line.2046-2048 Bus1=2046 Bus2=2048 R1=0.00798 X1=0.00128
New line.2047-2096 Bus1=2047 Bus2=2096 R1=0.00779 X1=0.00060
New line.2047-2100 Bus1=2047 Bus2=2100 R1=0.00662 X1=0.00051
New line.2048-2049 Bus1=2048 Bus2=2049 R1=0.01250 X1=0.00096
New line.2048-2051 Bus1=2048 Bus2=2051 R1=0.00913 X1=0.00146
New line.2049-2098 Bus1=2049 Bus2=2098 R1=0.00820 X1=0.00063
New line.2049-2102 Bus1=2049 Bus2=2102 R1=0.00651 X1=0.00050
New line.2050-2052 Bus1=2050 Bus2=2052 R1=0.00264 X1=0.00020
New line.2050-2101 Bus1=2050 Bus2=2101 R1=0.01124 X1=0.00086
New line.2051-2053 Bus1=2051 Bus2=2053 R1=0.01979 X1=0.00205
New line.2051-2054 Bus1=2051 Bus2=2054 R1=0.01239 X1=0.00095
New line.2052-2103 Bus1=2052 Bus2=2103 R1=0.00324 X1=0.00025
New line.2052-2104 Bus1=2052 Bus2=2104 R1=0.00864 X1=0.00066
New line.2053-2105 Bus1=2053 Bus2=2105 R1=0.00944 X1=0.00064
New line.2053-2108 Bus1=2053 Bus2=2108 R1=0.01174 X1=0.00079
New line.2054-2107 Bus1=2054 Bus2=2107 R1=0.00897 X1=0.00095
New line.2054-2110 Bus1=2054 Bus2=2110 R1=0.00931 X1=0.00071
New line.2055-2106 Bus1=2055 Bus2=2106 R1=0.00375 X1=0.00029
New line.2055-2109 Bus1=2055 Bus2=2109 R1=0.01115 X1=0.00085
New line.3001-3002 Bus1=3001 Bus2=3002 R1=0.00975 X1=0.00155
New line.3002-3003 Bus1=3002 Bus2=3003 R1=0.00679 X1=0.00052
New line.3002-3004 Bus1=3002 Bus2=3004 R1=0.00563 X1=0.00090
New line.3003-3056 Bus1=3003 Bus2=3056 R1=0.00615 X1=0.00047
New line.3003-3058 Bus1=3003 Bus2=3058 R1=0.00776 X1=0.00059
New line.3004-3005 Bus1=3004 Bus2=3005 R1=0.00659 X1=0.00050
New line.3004-3006 Bus1=3004 Bus2=3006 R1=0.00944 X1=0.00150
New line.3005-3057 Bus1=3005 Bus2=3057 R1=0.00708 X1=0.00054
New line.3005-3061 Bus1=3005 Bus2=3061 R1=0.00741 X1=0.00057
New line.3006-3007 Bus1=3006 Bus2=3007 R1=0.00950 X1=0.00073
New line.3006-3008 Bus1=3006 Bus2=3008 R1=0.00597 X1=0.00095
New line.3007-3059 Bus1=3007 Bus2=3059 R1=0.00464 X1=0.00036
New line.3007-3060 Bus1=3007 Bus2=3060 R1=0.00464 X1=0.00036
New line.3008-3009 Bus1=3008 Bus2=3009 R1=0.00392 X1=0.00062
New line.3008-3012 Bus1=3008 Bus2=3012 R1=0.00131 X1=0.00099
New line.3009-3010 Bus1=3009 Bus2=3010 R1=0.00037 X1=0.00028
New line.3009-3017 Bus1=3009 Bus2=3017 R1=0.00772 X1=0.00206
New line.3010-3011 Bus1=3010 Bus2=3011 R1=0.00143 X1=0.00109
New line.3010-3069 Bus1=3010 Bus2=3069 R1=0.01650 X1=0.00126
New line.3011-3018 Bus1=3011 Bus2=3018 R1=0.01286 X1=0.00098
New line.3011-3021 Bus1=3011 Bus2=3021 R1=0.01342 X1=0.00202
New line.3012-3013 Bus1=3012 Bus2=3013 R1=0.00109 X1=0.00083
New line.3012-3062 Bus1=3012 Bus2=3062 R1=0.02132 X1=0.00163
New line.3013-3014 Bus1=3013 Bus2=3014 R1=0.01432 X1=0.00110
New line.3013-3015 Bus1=3013 Bus2=3015 R1=0.00126 X1=0.00095
New line.3014-3063 Bus1=3014 Bus2=3063 R1=0.00795 X1=0.00061
New line.3014-3067 Bus1=3014 Bus2=3067 R1=0.00947 X1=0.00072
New line.3015-3016 Bus1=3015 Bus2=3016 R1=0.01632 X1=0.00170
New line.3015-3064 Bus1=3015 Bus2=3064 R1=0.02123 X1=0.00162
New line.3016-3065 Bus1=3016 Bus2=3065 R1=0.00610 X1=0.00047
New line.3016-3066 Bus1=3016 Bus2=3066 R1=0.00610 X1=0.00047
New line.3017-3019 Bus1=3017 Bus2=3019 R1=0.00112 X1=0.00030
New line.3017-3076 Bus1=3017 Bus2=3076 R1=0.01670 X1=0.00128
New line.3018-3068 Bus1=3018 Bus2=3068 R1=0.00792 X1=0.00061
New line.3018-3070 Bus1=3018 Bus2=3070 R1=0.00552 X1=0.00042
New line.3019-3020 Bus1=3019 Bus2=3020 R1=0.00137 X1=0.00036
New line.3019-3074 Bus1=3019 Bus2=3074 R1=0.01721 X1=0.00132
New line.3020-3022 Bus1=3020 Bus2=3022 R1=0.00386 X1=0.00062
New line.3020-3026 Bus1=3020 Bus2=3026 R1=0.00200 X1=0.00053
New line.3021-3071 Bus1=3021 Bus2=3071 R1=0.00818 X1=0.00063
New line.3021-3072 Bus1=3021 Bus2=3072 R1=0.00382 X1=0.00029
New line.3022-3023 Bus1=3022 Bus2=3023 R1=0.00501 X1=0.00080
New line.3022-3025 Bus1=3022 Bus2=3025 R1=0.00885 X1=0.00068
New line.3023-3024 Bus1=3023 Bus2=3024 R1=0.00313 X1=0.00050
New line.3023-3073 Bus1=3023 Bus2=3073 R1=0.01466 X1=0.00112
New line.3024-3028 Bus1=3024 Bus2=3028 R1=0.01766 X1=0.00282
New line.3024-3078 Bus1=3024 Bus2=3078 R1=0.01815 X1=0.00139
New line.3025-3075 Bus1=3025 Bus2=3075 R1=0.00598 X1=0.00046
New line.3025-3077 Bus1=3025 Bus2=3077 R1=0.00980 X1=0.00075
New line.3026-3027 Bus1=3026 Bus2=3027 R1=0.00202 X1=0.00054
New line.3026-3079 Bus1=3026 Bus2=3079 R1=0.02442 X1=0.00187
New line.3027-3031 Bus1=3027 Bus2=3031 R1=0.00721 X1=0.00192
New line.3027-3033 Bus1=3027 Bus2=3033 R1=0.01228 X1=0.00094
New line.3028-3029 Bus1=3028 Bus2=3029 R1=0.00637 X1=0.00102
New line.3028-3089 Bus1=3028 Bus2=3089 R1=0.01901 X1=0.00145
New line.3029-3030 Bus1=3029 Bus2=3030 R1=0.01182 X1=0.00090
New line.3029-3032 Bus1=3029 Bus2=3032 R1=0.00753 X1=0.00120
New line.3030-3080 Bus1=3030 Bus2=3080 R1=0.00768 X1=0.00059
New line.3030-3085 Bus1=3030 Bus2=3085 R1=0.00638 X1=0.00049
...