SmartGridMain/IEEE33/loadData33Full.dss
New Load.2056.1 Phases=1 Bus1=2056.1 kW=0 kvar=0 kv=0.240 vminpu=0.9 vmaxpu=1.1
New Load.2057.2 Phases=1 Bus1=2057.2 kW=0 kvar=0 kv=0.240 vminpu=0.9 vmaxpu=1.1
New Load.2058.1 Phases=1 Bus1=2058.1 kW=0 kvar=0 kv=0.240 vminpu=0.9 vmaxpu=1.1
New Load.2059.1 Phases=1 Bus1=2059.1 kW=0 kvar=0 kv=0.240 vminpu=0.9 vmaxpu=1.1
New Load.2060.1 Phases=1 Bus1=2060.1 kW=0 kvar=0 kv=0.240 vminpu=0.9 vmaxpu=1.1
New Load.2061.2 Phases=1 Bus1=2061.2 kW=0 kvar=0 kv=0.240 vminpu=0.9 vmaxpu=1.1
New Load.2062.2 Phases=1 Bus1=2062.2 kW=0 kvar=0 kv=0.240 vminpu=0.9 vmaxpu=1.1
New Load.2063.3 Phases=1 Bus1=2063.3 kW=0 kvar=0 kv=0.240 vminpu=0.9 vmaxpu=1.1
New Load.2064.1 Phases=1 Bus1=2064.1 kW=0 kvar=0 kv=0.240 vminpu=0.9 vmaxpu=1.1
New Load.2065.2 Phases=1 Bus1=2065.2 kW=0 kvar=0 kv=0.240 vminpu=0.9 vmaxpu=1.1
New Load.2066.2 Phases=1 Bus1=2066.2 kW=0 kvar=0 kv=0.240 vminpu=0.9 vmaxpu=1.1
New Load.2067.3 Phases=1 Bus1=2067.3 kW=0 kvar=0 kv=0.240 vminpu=0.9 vmaxpu=1.1
New Load.2068.2 Phases=1 Bus1=2068.2 kW=0 kvar=0 kv=0.240 vminpu=0.9 vmaxpu=1.1
New Load.2069.1 Phases=1 Bus1=2069.1 kW=0 kvar=0 kv=0.240 vminpu=0.9 vmaxpu=1.1
New Load.2070.2 Phases=1 Bus1=2070.2 kW=0 kvar=0 kv=0.240 vminpu=0.9 vmaxpu=1.1
New Load.2071.3 Phases=1 Bus1=2071.3 kW=0 kvar=0 kv=0.240 vminpu=0.9 vmaxpu=1.1
New Load.2072.3 Phases=1 Bus1=2072.3 kW=0 kvar=0 kv=0.240 vminpu=0.9 vmaxpu=1.1
New Load.2073.3 Phases=1 Bus1=2073.3 kW=0 kvar=0 kv=0.240 vminpu=0.9 vmaxpu=1.1
New Load.2074.3 Phases=1 Bus1=2074.3 kW=0 kvar=0 kv=0.240 vminpu=0.9 vmaxpu=1.1
New Load.2075.1 Phases=1 Bus1=2075.1 kW=0 kvar=0 kv=0.240 vminpu=0.9 vmaxpu=1.1
New Load.2076.1 Phases=1 Bus1=2076.1 kW=0 kvar=0 kv=0.240 vminpu=0.9 vmaxpu=1.1
New Load.2077.1 Phases=1 Bus1=2077.1 kW=0 kvar=0 kv=0.240 vminpu=0.9 vmaxpu=1.1
New Load.2078.2 Phases=1 Bus1=2078.2 kW=0 kvar=0 kv=0.240 vminpu=0.9 vmaxpu=1.1
New Load.2079.3 Phases=1 Bus1=2079.3 kW=0 kvar=0 kv=0.240 vminpu=0.9 vmaxpu=1.1
New Load.2080.1 Phases=1 Bus1=2080.1 kW=0 kvar=0 kv=0.240 vminpu=0.9 vmaxpu=1.1
New Load.2081.2 Phases=1 Bus1=2081.2 kW=0 kvar=0 kv=0.240 vminpu=0.9 vmaxpu=1.1
New Load.2082.3 Phases=1 Bus1=2082.3 kW=0 kvar=0 kv=0.240 vminpu=0.9 vmaxpu=1.1
New Load.2083.3 Phases=1 Bus1=2083.3 kW=0 kvar=0 kv=0.240 vminpu=0.9 vmaxpu=1.1
New Load.2084.1 Phases=1 Bus1=2084.1 kW=0 kvar=0 kv=0.240 vminpu=0.9 vmaxpu=1.1
New Load.2085.1 Phases=1 Bus1=2085.1 kW=0 kvar=0 kv=0.240 vminpu=0.9 vmaxpu=1.1
New Load.2086.1 Phases=1 Bus1=2086.1 kW=0 kvar=0 kv=0.240 vminpu=0.9 vmaxpu=1.1
New Load.2087.3 Phases=1 Bus1=2087.3 kW=0 kvar=0 kv=0.240 vminpu=0.9 vmaxpu=1.1
New Load.2088.3 Phases=1 Bus1=2088.3 kW=0 kvar=0 kv=0.240 vminpu=0.9 vmaxpu=1.1
New Load.2089.1 Phases=1 Bus1=2089.1 kW=0 kvar=0 kv=0.240 vminpu=0.9 vmaxpu=1.1
New Load.2090.2 Phases=1 Bus1=2090.2 kW=0 kvar=0 kv=0.240 vminpu=0.9 vmaxpu=1.1
New Load.2091.2 Phases=1 Bus1=2091.2 kW=0 kvar=0 kv=0.240 vminpu=0.9 vmaxpu=1.1
New Load.2092.2 Phases=1 Bus1=2092.2 kW=0 kvar=0 kv=0.240 vminpu=0.9 vmaxpu=1.1
New Load.2093.2 Phases=1 Bus1=2093.2 kW=0 kvar=0 kv=0.240 vminpu=0.9 vmaxpu=1.1
New Load.2094.3 Phases=1 Bus1=2094.3 kW=0 kvar=0 kv=0.240 vminpu=0.9 vmaxpu=1.1
New Load.2095.2 Phases=1 Bus1=2095.2 kW=0 kvar=0 kv=0.240 vminpu=0.9 vmaxpu=1.1
New Load.2096.2 Phases=1 Bus1=2096.2 kW=0 kvar=0 kv=0.240 vminpu=0.9 vmaxpu=1.1
New Load.2097.3 Phases=1 Bus1=2097.3 kW=0 kvar=0 kv=0.240 vminpu=0.9 vmaxpu=1.1
New Load.2098.3 Phases=1 Bus1=2098.3 kW=0 kvar=0 kv=0.240 vminpu=0.9 vmaxpu=1.1
New Load.2099.2 Phases=1 Bus1=2099.2 kW=0 kvar=0 kv=0.240 vminpu=0.9 vmaxpu=1.1
New Load.2100.2 Phases=1 Bus1=2100.2 kW=0 kvar=0 kv=0.240 vminpu=0.9 vmaxpu=1.1
New Load.2101.1 Phases=1 Bus1=2101.1 kW=0 kvar=0 kv=0.240 vminpu=0.9 vmaxpu=1.1
New Load.2102.3 Phases=1 Bus1=2102.3 kW=0 kvar=0 kv=0.240 vminpu=0.9 vmaxpu=1.1
New Load.2103.1 Phases=1 Bus1=2103.1 kW=0 kvar=0 kv=0.240 vminpu=0.9 vmaxpu=1.1
New Load.2104.1 Phases=1 Bus1=2104.1 kW=0 kvar=0 kv=0.240 vminpu=0.9 vmaxpu=1.1
New Load.2105.2 Phases=1 Bus1=2105.2 kW=0 kvar=0 kv=0.240 vminpu=0.9 vmaxpu=1.1
New Load.2106.1 Phases=1 Bus1=2106.1 kW=0 kvar=0 kv=0.240 vminpu=0.9 vmaxpu=1.1
New Load.2107.1 Phases=1 Bus1=2107.1 kW=0 kvar=0 kv=0.240 vminpu=0.9 vmaxpu=1.1
New Load.2108.2 Phases=1 Bus1=2108.2 kW=0 kvar=0 kv=0.240 vminpu=0.9 vmaxpu=1.1
New Load.2109.1 Phases=1 Bus1=2109.1 kW=0 kvar=0 kv=0.240 vminpu=0.9 vmaxpu=1.1
New Load.2110.1 Phases=1 Bus1=2110.1 kW=0 kvar=0 kv=0.240 vminpu=0.9 vmaxpu=1.1
New Load.3056.1 Phases=1 Bus1=3056.1 kW=0 kvar=0 kv=0.240 vminpu=0.9 vmaxpu=1.1
New Load.3057.2 Phases=1 Bus1=3057.2 kW=0 kvar=0 kv=0.240 vminpu=0.9 vmaxpu=1.1
New Load.3058.1 Phases=1 Bus1=3058.1 kW=0 kvar=0 kv=0.240 vminpu=0.9 vmaxpu=1.1
New Load.3059.1 Phases=1 Bus1=3059.1 kW=0 kvar=0 kv=0.240 vminpu=0.9 vmaxpu=1.1
New Load.3060.1 Phases=1 Bus1=3060.1 kW=0 kvar=0 kv=0.240 vminpu=0.9 vmaxpu=1.1
New Load.3061.2 Phases=1 Bus1=3061.2 kW=0 kvar=0 kv=0.240 vminpu=0.9 vmaxpu=1.1
New Load.3062.2 Phases=1 Bus1=3062.2 kW=0 kvar=0 kv=0.240 vminpu=0.9 vmaxpu=1.1
New Load.3063.3 Phases=1 Bus1=3063.3 kW=0 kvar=0 kv=0.240 vminpu=0.9 vmaxpu=1.1
New Load.3064.1 Phases=1 Bus1=3064.1 kW=0 kvar=0 kv=0.240 vminpu=0.9 vmaxpu=1.1
New Load.3065.2 Phases=1 Bus1=3065.2 kW=0 kvar=0 kv=0.240 vminpu=0.9 vmaxpu=1.1
New Load.3066.2 Phases=1 Bus1=3066.2 kW=0 kvar=0 kv=0.240 vminpu=0.9 vmaxpu=1.1
New Load.3067.3 Phases=1 Bus1=3067.3 kW=0 kvar=0 kv=0.240 vminpu=0.9 vmaxpu=1.1
New Load.3068.2 Phases=1 Bus1=3068.2 kW=0 kvar=0 kv=0.240 vminpu=0.9 vmaxpu=1.1
New Load.3069.1 Phases=1 Bus1=3069.1 kW=0 kvar=0 kv=0.240 vminpu=0.9 vmaxpu=1.1
New Load.3070.2 Phases=1 Bus1=3070.2 kW=0 kvar=0 kv=0.240 vminpu=0.9 vmaxpu=1.1
New Load.3071.3 Phases=1 Bus1=3071.3 kW=0 kvar=0 kv=0.240 vminpu=0.9 vmaxpu=1.1
New Load.3072.3 Phases=1 Bus1=3072.3 kW=0 kvar=0 kv=0.240 vminpu=0.9 vmaxpu=1.1
New Load.3073.3 Phases=1 Bus1=3073.3 kW=0 kvar=0 kv=0.240 vminpu=0.9 vmaxpu=1.1
New Load.3074.3 Phases=1 Bus1=3074.3 kW=0 kvar=0 kv=0.240 vminpu=0.9 vmaxpu=1.1
New Load.3075.1 Phases=1 Bus1=3075.1 kW=0 kvar=0 kv=0.240 vminpu=0.9 vmaxpu=1.1
New Load.3076.1 Phases=1 Bus1=3076.1 kW=0 kvar=0 kv=0.240 vminpu=0.9 vmaxpu=1.1
New Load.3077.1 Phases=1 Bus1=3077.1 kW=0 kvar=0 kv=0.240 vminpu=0.9 vmaxpu=1.1
New Load.3078.2 Phases=1 Bus1=3078.2 kW=0 kvar=0 kv=0.240 vminpu=0.9 vmaxpu=1.1
New Load.3079.3 Phases=1 Bus1=3079.3 kW=0 kvar=0 kv=0.240 vminpu=0.9 vmaxpu=1.1
New Load.3080.1 Phases=1 Bus1=3080.1 kW=0 kvar=0 kv=0.240 vminpu=0.9 vmaxpu=1.1
New Load.3081.2 Phases=1 Bus1=3081.2 kW=0 kvar=0 kv=0.240 vminpu=0.9 vmaxpu=1.1
New Load.3082.3 Phases=1 Bus1=3082.3 kW=0 kvar=0 kv=0.240 vminpu=0.9 vmaxpu=1.1
New Load.3083.3 Phases=1 Bus1=3083.3 kW=0 kvar=0 kv=0.240 vminpu=0.9 vmaxpu=1.1
New Load.3084.1 Phases=1 Bus1=3084.1 kW=0 kvar=0 kv=0.240 vminpu=0.9 vmaxpu=1.1
New Load.3085.1 Phases=1 Bus1=3085.1 kW=0 kvar=0 kv=0.240 vminpu=0.9 vmaxpu=1.1
New Load.3086.1 Phases=1 Bus1=3086.1 kW=0 kvar=0 kv=0.240 vminpu=0.9 vmaxpu=1.1
New Load.3087.3 Phases=1 Bus1=3087.3 kW=0 kvar=0 kv=0.240 vminpu=0.9 vmaxpu=1.1
New Load.3088.3 Phases=1 Bus1=3088.3 kW=0 kvar=0 kv=0.240 vminpu=0.9 vmaxpu=1.1
New Load.3089.1 Phases=1 Bus1=3089.1 kW=0 kvar=0 kv=0.240 vminpu=0.9 vmaxpu=1.1
New Load.3090.2 Phases=1 Bus1=3090.2 kW=0 kvar=0 kv=0.240 vminpu=0.9 vmaxpu=1.1
New Load.3091.2 Phases=1 Bus1=3091.2 kW=0 kvar=0 kv=0.240 vminpu=0.9 vmaxpu=1.1
New Load.3092.2 Phases=1 Bus1=3092.2 kW=0 kvar=0 kv=0.240 vminpu=0.9 vmaxpu=1.1
New Load.3093.2 Phases=1 Bus1=3093.2 kW=0 kvar=0 kv=0.240 vminpu=0.9 vmaxpu=1.1
New Load.3094.3 Phases=1 Bus1=3094.3 kW=0 kvar=0 kv=0.240 vminpu=0.9 vmaxpu=1.1
New Load.3095.2 Phases=1 Bus1=3095.2 kW=0 kvar=0 kv=0.240 vminpu=0.9 vmaxpu=1.1
New Load.3096.2 Phases=1 Bus1=3096.2 kW=0 kvar=0 kv=0.240 vminpu=0.9 vmaxpu=1.1
New Load.3097.3 Phases=1 Bus1=3097.3 kW=0 kvar=0 kv=0.240 vminpu=0.9 vmaxpu=1.1
New Load.3098.3 Phases=1 Bus1=3098.3 kW=0 kvar=0 kv=0.240 vminpu=0.9 vmaxpu=1.1
New Load.3099.2 Phases=1 Bus1=3099.2 kW=0 kvar=0 kv=0.240 vminpu=0.9 vmaxpu=1.1
New Load.3100.2 Phases=1 Bus1=3100.2 kW=0 kvar=0 kv=0.240 vminpu=0.9 vmaxpu=1.1
New Load.3101.1 Phases=1 Bus1=3101.1 kW=0 kvar=0 kv=0.240 vminpu=0.9 vmaxpu=1.1
New Load.3102.3 Phases=1 Bus1=3102.3 kW=0 kvar=0 kv=0.240 vminpu=0.9 vmaxpu=1.1
New Load.3103.1 Phases=1 Bus1=3103.1 kW=0 kvar=0 kv=0.240 vminpu=0.9 vmaxpu=1.1
New Load.3104.1 Phases=1 Bus1=3104.1 kW=0 kvar=0 kv=0.240 vminpu=0.9 vmaxpu=1.1
New Load.3105.2 Phases=1 Bus1=3105.2 kW=0 kvar=0 kv=0.240 vminpu=0.9 vmaxpu=1.1
New Load.3106.1 Phases=1 Bus1=3106.1 kW=0 kvar=0 kv=0.240 vminpu=0.9 vmaxpu=1.1
New Load.3107.1 Phases=1 Bus1=3107.1 kW=0 kvar=0 kv=0.240 vminpu=0.9 vmaxpu=1.1
New Load.3108.2 Phases=1 Bus1=3108.2 kW=0 kvar=0 kv=0.240 vminpu=0.9 vmaxpu=1.1
New Load.3109.1 Phases=1 Bus1=3109.1 kW=0 kvar=0 kv=0.240 vminpu=0.9 vmaxpu=1.1
New Load.3110.1 Phases=1 Bus1=3110.1 kW=0 kvar=0 kv=0.240 vminpu=0.9 vmaxpu=1.1
New Load.4056.1 Phases=1 Bus1=4056.1 kW=0 kvar=0 kv=0.240 vminpu=0.9 vmaxpu=1.1
New Load.4057.2 Phases=1 Bus1=4057.2 kW=0 kvar=0 kv=0.240 vminpu=0.9 vmaxpu=1.1
New Load.4058.1 Phases=1 Bus1=4058.1 kW=0 kvar=0 kv=0.240 vminpu=0.9 vmaxpu=1.1
New Load.4059.1 Phases=1 Bus1=4059.1 kW=0 kvar=0 kv=0.240 vminpu=0.9 vmaxpu=1.1
New Load.4060.1 Phases=1 Bus1=4060.1 kW=0 kvar=0 kv=0.240 vminpu=0.9 vmaxpu=1.1
New Load.4061.2 Phases=1 Bus1=4061.2 kW=0 kvar=0 kv=0.240 vminpu=0.9 vmaxpu=1.1
New Load.4062.2 Phases=1 Bus1=4062.2 kW=0 kvar=0 kv=0.240 vminpu=0.9 vmaxpu=1.1
New Load.4063.3 Phases=1 Bus1=4063.3 kW=0 kvar=0 kv=0.240 vminpu=0.9 vmaxpu=1.1
New Load.4064.1 Phases=1 Bus1=4064.1 kW=0 kvar=0 kv=0.240 vminpu=0.9 vmaxpu=1.1
New Load.4065.2 Phases=1 Bus1=4065.2 kW=0 kvar=0 kv=0.240 vminpu=0.9 vmaxpu=1.1
New Load.4066.2 Phases=1 Bus1=4066.2 kW=0 kvar=0 kv=0.240 vminpu=0.9 vmaxpu=1.1
New Load.4067.3 Phases=1 Bus1=4067.3 kW=0 kvar=0 kv=0.240 vminpu=0.9 vmaxpu=1.1
New Load.4068.2 Phases=1 Bus1=4068.2 kW=0 kvar=0 kv=0.240 vminpu=0.9 vmaxpu=1.1
New Load.4069.1 Phases=1 Bus1=4069.1 kW=0 kvar=0 kv=0.240 vminpu=0.9 vmaxpu=1.1
New Load.4070.2 Phases=1 Bus1=4070.2 kW=0 kvar=0 kv=0.240 vminpu=0.9 vmaxpu=1.1
New Load.4071.3 Phases=1 Bus1=4071.3 kW=0 kvar=0 kv=0.240 vminpu=0.9 vmaxpu=1.1
New Load.4072.3 Phases=1 Bus1=4072.3 kW=0 kvar=0 kv=0.240 vminpu=0.9 vmaxpu=1.1
New Load.4073.3 Phases=1 Bus1=4073.3 kW=0 kvar=0 kv=0.240 vminpu=0.9 vmaxpu=1.1
New Load.4074.3 Phases=1 Bus1=4074.3 kW=0 kvar=0 kv=0.240 vminpu=0.9 vmaxpu=1.1
New Load.4075.1 Phases=1 Bus1=4075.1 kW=0 kvar=0 kv=0.240 vminpu=0.9 vmaxpu=1.1
New Load.4076.1 Phases=1 Bus1=4076.1 kW=0 kvar=0 kv=0.240 vminpu=0.9 vmaxpu=1.1
New Load.4077.1 Phases=1 Bus1=4077.1 kW=0 kvar=0 kv=0.240 vminpu=0.9 vmaxpu=1.1
New Load.4078.2 Phases=1 Bus1=4078.2 kW=0 kvar=0 kv=0.240 vminpu=0.9 vmaxpu=1.1
New Load.4079.3 Phases=1 Bus1=4079.3 kW=0 kvar=0 kv=0.240 vminpu=0.9 vmaxpu=1.1
New Load.4080.1 Phases=1 Bus1=4080.1 kW=0 kvar=0 kv=0.240 vminpu=0.9 vmaxpu=1.1
New Load.4081.2 Phases=1 Bus1=4081.2 kW=0 kvar=0 kv=0.240 vminpu=0.9 vmaxpu=1.1
New Load.4082.3 Phases=1 Bus1=4082.3 kW=0 kvar=0 kv=0.240 vminpu=0.9 vmaxpu=1.1
New Load.4083.3 Phases=1 Bus1=4083.3 kW=0 kvar=0 kv=0.240 vminpu=0.9 vmaxpu=1.1
New Load.4084.1 Phases=1 Bus1=4084.1 kW=0 kvar=0 kv=0.240 vminpu=0.9 vmaxpu=1.1
New Load.4085.1 Phases=1 Bus1=4085.1 kW=0 kvar=0 kv=0.240 vminpu=0.9 vmaxpu=1.1
New Load.4086.1 Phases=1 Bus1=4086.1 kW=0 kvar=0 kv=0.240 vminpu=0.9 vmaxpu=1.1
New Load.4087.3 Phases=1 Bus1=4087.3 kW=0 kvar=0 kv=0.240 vminpu=0.9 vmaxpu=1.1
New Load.4088.3 Phases=1 Bus1=4088.3 kW=0 kvar=0 kv=0.240 vminpu=0.9 vmaxpu=1.1
New Load.4089.1 Phases=1 Bus1=4089.1 kW=0 kvar=0 kv=0.240 vminpu=0.9 vmaxpu=1.1
New Load.4090.2 Phases=1 Bus1=4090.2 kW=0 kvar=0 kv=0.240 vminpu=0.9 vmaxpu=1.1
New Load.4091.2 Phases=1 Bus1=4091.2 kW=0 kvar=0 kv=0.240 vminpu=0.9 vmaxpu=1.1
New Load.4092.2 Phases=1 Bus1=4092.2 kW=0 kvar=0 kv=0.240 vminpu=0.9 vmaxpu=1.1
New Load.4093.2 Phases=1 Bus1=4093.2 kW=0 kvar=0 kv=0.240 vminpu=0.9 vmaxpu=1.1
New Load.4094.3 Phases=1 Bus1=4094.3 kW=0 kvar=0 kv=0.240 vminpu=0.9 vmaxpu=1.1
New Load.4095.2 Phases=1 Bus1=4095.2 kW=0 kvar=0 kv=0.240 vminpu=0.9 vmaxpu=1.1
New Load.4096.2 Phases=1 Bus1=4096.2 kW=0 kvar=0 kv=0.240 vminpu=0.9 vmaxpu=1.1
New Load.4097.3 Phases=1 Bus1=4097.3 kW=0 kvar=0 kv=0.240 vminpu=0.9 vmaxpu=1.1
New Load.4098.3 Phases=1 Bus1=4098.3 kW=0 kvar=0 kv=0.240 vminpu=0.9 vmaxpu=1.1
New Load.4099.2 Phases=1 Bus1=4099.2 kW=0 kvar=0 kv=0.240 vminpu=0.9 vmaxpu=1.1
New Load.4100.2 Phases=1 Bus1=4100.2 kW=0 kvar=0 kv=0.240 vminpu=0.9 vmaxpu=1.1
New Load.4101.1 Phases=1 Bus1=4101.1 kW=0 kvar=0 kv=0.240 vminpu=0.9 vmaxpu=1.1
New Load.4102.3 Phases=1 Bus1=4102.3 kW=0 kvar=0 kv=0.240 vminpu=0.9 vmaxpu=1.1
New Load.4103.1 Phases=1 Bus1=4103.1 kW=0 kvar=0 kv=0.240 vminpu=0.9 vmaxpu=1.1
New Load.4104.1 Phases=1 Bus1=4104.1 kW=0 kvar=0 kv=0.240 vminpu=0.9 vmaxpu=1.1
New Load.4105.2 Phases=1 Bus1=4105.2 kW=0 kvar=0 kv=0.240 vminpu=0.9 vmaxpu=1.1
New Load.4106.1 Phases=1 Bus1=4106.1 kW=0 kvar=0 kv=0.240 vminpu=0.9 vmaxpu=1.1
New Load.4107.1 Phases=1 Bus1=4107.1 kW=0 kvar=0 kv=0.240 vminpu=0.9 vmaxpu=1.1
New Load.4108.2 Phases=1 Bus1=4108.2 kW=0 kvar=0 kv=0.240 vminpu=0.9 vmaxpu=1.1
New Load.4109.1 Phases=1 Bus1=4109.1 kW=0 kvar=0 kv=0.240 vminpu=0.9 vmaxpu=1.1
New Load.4110.1 Phases=1 Bus1=4110.1 kW=0 kvar=0 kv=0.240 vminpu=0.9 vmaxpu=1.1
New Load.5056.1 Phases=1 Bus1=5056.1 kW=0 kvar=0 kv=0.240 vminpu=0.9 vmaxpu=1.1
New Load.5057.2 Phases=1 Bus1=5057.2 kW=0 kvar=0 kv=0.240 vminpu=0.9 vmaxpu=1.1
New Load.5058.1 Phases=1 Bus1=5058.1 kW=0 kvar=0 kv=0.240 vminpu=0.9 vmaxpu=1.1
New Load.5059.1 Phases=1 Bus1=5059.1 kW=0 kvar=0 kv=0.240 vminpu=0.9 vmaxpu=1.1
New Load.5060.1 Phases=1 Bus1=5060.1 kW=0 kvar=0 kv=0.240 vminpu=0.9 vmaxpu=1.1
New Load.5061.2 Phases=1 Bus1=5061.2 kW=0 kvar=0 kv=0.240 vminpu=0.9 vmaxpu=1.1
New Load.5062.2 Phases=1 Bus1=5062.2 kW=0 kvar=0 kv=0.240 vminpu=0.9 vmaxpu=1.1
New Load.5063.3 Phases=1 Bus1=5063.3 kW=0 kvar=0 kv=0.240 vminpu=0.9 vmaxpu=1.1
New Load.5064.1 Phases=1 Bus1=5064.1 kW=0 kvar=0 kv=0.240 vminpu=0.9 vmaxpu=1.1
New Load.5065.2 Phases=1 Bus1=5065.2 kW=0 kvar=0 kv=0.240 vminpu=0.9 vmaxpu=1.1
New Load.5066.2 Phases=1 Bus1=5066.2 kW=0 kvar=0 kv=0.240 vminpu=0.9 vmaxpu=1.1
New Load.5067.3 Phases=1 Bus1=5067.3 kW=0 kvar=0 kv=0.240 vminpu=0.9 vmaxpu=1.1
New Load.5068.2 Phases=1 Bus1=5068.2 kW=0 kvar=0 kv=0.240 vminpu=0.9 vmaxpu=1.1
New Load.5069.1 Phases=1 Bus1=5069.1 kW=0 kvar=0 kv=0.240 vminpu=0.9 vmaxpu=1.1
New Load.5070.2 Phases=1 Bus1=5070.2 kW=0 kvar=0 kv=0.240 vminpu=0.9 vmaxpu=1.1
New Load.5071.3 Phases=1 Bus1=5071.3 kW=0 kvar=0 kv=0.240 vminpu=0.9 vmaxpu=1.1
New Load.5072.3 Phases=1 Bus1=5072.3 kW=0 kvar=0 kv=0.240 vminpu=0.9 vmaxpu=1.1
New Load.5073.3 Phases=1 Bus1=5073.3 kW=0 kvar=0 kv=0.240 vminpu=0.9 vmaxpu=1.1
New Load.5074.3 Phases=1 Bus1=5074.3 kW=0 kvar=0 kv=0.240 vminpu=0.9 vmaxpu=1.1
New Load.5075.1 Phases=1 Bus1=5075.1 kW=0 kvar=0 kv=0.240 vminpu=0.9 vmaxpu=1.1
New Load.5076.1 Phases=1 Bus1=5076.1 kW=0 kvar=0 kv=0.240 vminpu=0.9 vmaxpu=1.1
New Load.5077.1 Phases=1 Bus1=5077.1 kW=0 kvar=0 kv=0.240 vminpu=0.9 vmaxpu=1.1
New Load.5078.2 Phases=1 Bus1=5078.2 kW=0 kvar=0 kv=0.240 vminpu=0.9 vmaxpu=1.1
New Load.5079.3 Phases=1 Bus1=5079.3 kW=0 kvar=0 kv=0.240 vminpu=0.9 vmaxpu=1.1
New Load.5080.1 Phases=1 Bus1=5080.1 kW=0 kvar=0 kv=0.240 vminpu=0.9 vmaxpu=1.1
New Load.5081.2 Phases=1 Bus1=5081.2 kW=0 kvar=0 kv=0.240 vminpu=0.9 vmaxpu=1.1
New Load.5082.3 Phases=1 Bus1=5082.3 kW=0 kvar=0 kv=0.240 vminpu=0.9 vmaxpu=1.1
New Load.5083.3 Phases=1 Bus1=5083.3 kW=0 kvar=0 kv=0.240 vminpu=0.9 vmaxpu=1.1
New Load.5084.1 Phases=1 Bus1=5084.1 kW=0 kvar=0 kv=0.240 vminpu=0.9 vmaxpu=1.1
New Load.5085.1 Phases=1 Bus1=5085.1 kW=0 kvar=0 kv=0.240 vminpu=0.9 vmaxpu=1.1
New Load.5086.1 Phases=1 Bus1=5086.1 kW=0 kvar=0 kv=0.240 vminpu=0.9 vmaxpu=1.1
New Load.5087.3 Phases=1 Bus1=5087.3 kW=0 kvar=0 kv=0.240 vminpu=0.9 vmaxpu=1.1
New Load.5088.3 Phases=1 Bus1=5088.3 kW=0 kvar=0 kv=0.240 vminpu=0.9 vmaxpu=1.1
New Load.5089.1 Phases=1 Bus1=5089.1 kW=0 kvar=0 kv=0.240 vminpu=0.9 vmaxpu=1.1
New Load.5090.2 Phases=1 Bus1=5090.2 kW=0 kvar=0 kv=0.240 vminpu=0.9 vmaxpu=1.1
...